*test*  2d radial, 366 by 50, run 1, 500/1   100/719

ROCKS----1----*----2----*----3----*----4----*----5----*----6----*----7----*----8
BAS01       2840.e00     0.300  1.00e-08  1.00e-08  1.00e-08      2.17     940.9

SOLVR----1----*----2----*----3----*----4----*----5----*----6----*----7----*----8
5  Z1   O0    8.0e-1    1.0e-7
START----1----*----2----*----3----*----4----*----5----*----6----*----7----*----8
----*----1 MOP: 123456789*123456789*1234 ---*----5----*----6----*----7----*----8
PARAM----1----*----2----*----3----*----4----*----5----*----6----*----7----*----8
6  19999    990010003011000000 3    3                                
             9.99e9       -1.   0.1e10             9.81
               100.
     1.E-6     1.E00                                        
             1.50e2              15.

MULTI
1    1    2     6           

XINCON
A11 1           0.30000000E+00
 0.15000000000E+03     15.00


ENDCY
 