Cranfield 5-spot model, adapted for EOS7, non-isothermal, QLOSS
ROCKS----1----*----2----*----3----*----4----*----5----*----6----*----7----*----8
    1    2 .2600E+04 .1430E+00 .8130E-15 .8130E-15 .3160E-15 .2510E+01 .9200E+03
0.3000E-08     
   07     0.6500E+00 .2550E+00        1.     1.e-5
   07     0.4118E+00 .3000E-01 4.7939E-6 .1043E+09 .1000E+01  
    2    2 .2600E+04 .1580E+00 .3460E-14 .3460E-14 .1350E-14 .2510E+01 .9200E+03
0.3000E-08
   07     0.6500E+00 .1950E+00        1.     1.e-5
   07     0.4118E+00 .3000E-01 9.8912E-6 .5055E+08 .1000E+01
    3    2 .2600E+04 .1760E+00 .1120E-13 .1120E-13 .4390E-14 .2510E+01 .9200E+03
0.3000E-08 
   07     0.6500E+00 .1470E+00        1.     1.e-5
   07     0.4118E+00 .3000E-01 1.7819e-5 .2806E+08 .1000E+01  
    4    2 .2600E+04 .1880E+00 .1920E-13 .1920E-13 .1400E-13 .2510E+01 .9200E+03
0.3000E-08
   07     0.6500E+00 .1250E+00        1.     1.e-5 
   07     0.4118E+00 .3000E-01 2.3315E-5 .2145E+08 .1000E+01  
    5    2 .2600E+04 .1660E+00 .5500E-14 .5500E-14 .3900E-14 .2510E+01 .9200E+03
0.3000E-08
   07     0.6500E+00 .1760E+00        1.     1.e-5 
   07     0.4118E+00 .3000E-01 1.2472E-5 .4009E+08 .1000E+01  
    6    2 .2600E+04 .1850E+00 .1770E-13 .1770E-13 .1190E-13 .2510E+01 .9200E+03
0.3000E-08
   07     0.6500E+00 .1280E+00        1.     1.e-5   
   07     0.4118E+00 .3000E-01 2.2401E-5 .2232E+08 .1000E+01  
    7    2 .2600E+04 .2400E+00 .9110E-13 .9110E-13 .8870E-13 .2510E+01 .9200E+03
0.3000E-08
   07     0.6500E+00 .6100E-01        1.     1.e-5   
   07     0.4118E+00 .3000E-01 5.0761E-5 .9850E+07 .1000E+01  
    8    2 .2600E+04 .2600E+00 .1390E-12 .1390E-12 .1290E-12 .2510E+01 .9200E+03
0.3000E-08
   07     0.6500E+00 .5000E-01        1.     1.e-5   
   07     0.4118E+00 .3000E-01 6.2696E-5 .7975E+07 .1000E+01  
    9    2 .2600E+04 .2850E+00 .2120E-12 .2120E-12 .2000E-12 .2510E+01 .9200E+03
0.3000E-08
   07     0.6500E+00 .5000E-01        1.     1.e-5   
   07     0.4118E+00 .3000E-01 7.7459E-5 .6455E+07 .1000E+01  
   10    2 .2600E+04 .2700E+00 .1630E-12 .1630E-12 .1580E-12 .2510E+01 .9200E+03
0.3000E-08
   07     0.6500E+00 .5000E-01        1.     1.e-5   
   07     0.4118E+00 .3000E-01 6.7981E-5 .7355E+07 .1000E+01  
   11    2 .2600E+04 .2300E+00 .7700E-13 .7700E-13 .5990E-13 .2510E+01 .9200E+03
0.3000E-08
   07     0.6500E+00 .6800E-01        1.     1.e-5   
   07     0.4118E+00 .3000E-01 4.6664E-5 .1072E+08 .1000E+01  
   12    2 .2600E+04 .3060E+00 .2880E-12 .2880E-12 .2880E-12 .2510E+01 .9200E+03
0.3000E-08
   07     0.6500E+00 .5000E-01        1.     1.e-5   
   07     0.4118E+00 .3000E-01 9.0253E-5 .5540E+07 .1000E+01  
   13    2 .2600E+04 .2850E+00 .2130E-12 .2130E-12 .2040E-12 .2510E+01 .9200E+03
0.3000E-08
   07     0.6500E+00 .5000E-01        1.     1.e-5   
   07     0.4118E+00 .3000E-01 7.7519E-5 .6450E+07 .1000E+01  
   14    2 .2600E+04 .1550E+00 .1080E-13 .1080E-13 .2190E-15 .2510E+01 .9200E+03
0.3000E-08
   07     0.6500E+00 .1490E+00        1.     1.e-5   
   07     0.4118E+00 .3000E-01 1.7495E-5 .2858E+08 .1000E+01  
   15    2 .2600E+04 .2990E+00 .2660E-12 .2660E-12 .2330E-12 .2510E+01 .9200E+03
0.3000E-08
   07     0.6500E+00 .5000E-01        1.     1.e-5   
   07     0.4118E+00 .3000E-01 8.6805E-5 .5760E+07 .1000E+01  
   16    2 .2600E+04 .3340E+00 .4230E-12 .4230E-12 .4110E-12 .2510E+01 .9200E+03
0.3000E-08
   07     0.6500E+00 .5000E-01        1.     1.e-5   
   07     0.4118E+00 .3000E-01 1.0930E-4 .4575E+07 .1000E+01  
   17    2 .2600E+04 .3200E+00 .3560E-12 .3560E-12 .3300E-12 .2510E+01 .9200E+03
0.3000E-08
   07     0.6500E+00 .5000E-01        1.     1.e-5   
   07     0.4118E+00 .3000E-01 1.0034E-4 .4983E+07 .1000E+01  
   18    2 .2600E+04 .2940E+00 .2420E-12 .2420E-12 .2360E-12 .2510E+01 .9200E+03
0.3000E-08
   07     0.6500E+00 .5000E-01        1.     1.e-5   
   07     0.4118E+00 .3000E-01 8.2713E-5 .6045E+07 .1000E+01  
   19    2 .2600E+04 .2790E+00 .2050E-12 .2050E-12 .1310E-12 .2510E+01 .9200E+03
0.3000E-08
   07     0.6500E+00 .5000E-01        1.     1.e-5   
   07     0.4118E+00 .3000E-01 7.6103E-5 .6570E+07 .1000E+01  
   20    2 .2600E+04 .7100E-01 .2700E-16 .2700E-16 .1000E-17 .2510E+01 .9200E+03
0.3000E-08
   07     0.6500E+00 .3190E+00        1.     1.e-5   
   07     0.4118E+00 .3000E-01 8.7489E-7 .5715E+09 .1000E+01  
INJCT    2 .2600E+04 .2990E+00 .2660E-12 .2660E-12 .2330E-09 .2510E+01 .9200E+03
0.3000E-08
   07     0.6500E+00 .5000E-01        1.     1.e-5   
   07     0.4118E+00 .3000E-01 8.6806E-5 .5760E+07 .1000E+01  
QLOSS      .2600E+04 .2990E+00 .2660E-12 .2660E-12 .2330E-12 .2510E+01 .9200E+03

MULTI----1----*----2----*----3----*----4----*----5----*----6----*----7----*----8
    2    3    2    6                                                            
SOLVR----1----*----2----*----3----*----4----*----5----*----6----*----7----*----8
5  Z1   O0    8.0e-1    1.0e-7                                                  
START----1----*----2----*----3----*----4----*----5----*----6----*----7----*----8
PARAM----1 MOP: 123456789012345678901234 ---*----5----*----6----*----7----*----8
  -39999    9999100030100002  14    3                                           
0.        315576000.        1.                    9.806                         
     1.E-5     1.E00                                                            
             300.0e5               0.620                126.
MOMOP
001000000000000000000000000
TIMES----1----*----2----*----3----*----4----*----5----*----6----*----7----*----8
   02   02                                                                      
86400.    2592000.  
OUTPU----1----*----2----*----3----*----4----*----5----*----6----*----7----*----8
    5
SET                     1
SET                     2
SET                     3
ABSOLUTE                0
ENTHALPY                0
FOFT ----1----*----2----*----3----*----4----*----5----*----6----*----7----*----8
2FA99
2FB13

GENER    1----*----2----*----3----*----4----*----5----*----6----*----7----*----8
2FA99iwt11    0    0    0   41     COM1a
0.            7889400.      15778800.     23668200.
31557600.     39447000.     47336400.     55225800.
63115200.     71004600.     78894000.     86783400.
94672800.     102562200.    110451600.    118341000.
126230400.    134119800.    142009200.    149898600.
157788000.    165677400.    173566800.    181456200.
189345600.    197235000.    205124400.    213013800.
220903200.    228792600.    236682000.    244571400.
252460800.    260350200.    268239600.    276129000.
284018400.    291907800.    299797200.    307686600.
315576001.
0.1425        0.            0.1425       0.
0.1425        0.            0.1425        0.
0.1425        0.            0.1425        0.
0.1425        0.            0.1425        0.
0.1425        0.            0.1425        0.
0.1425        0.            0.1425        0.
0.1425        0.            0.1425        0.
0.1425        0.            0.1425        0.
0.1425        0.            0.1425        0.
0.1425        0.            0.1425        0.
0.1425  
 778540.       778540.       552180.       552180.
 778540.       778540.       552180.       552180.
 778540.       778540.       552180.       552180.
 778540.       778540.       552180.       552180.
 778540.       778540.       552180.       552180.
 778540.       778540.       552180.       552180.
 778540.       778540.       552180.       552180.
 778540.       778540.       552180.       552180.
 778540.       778540.       552180.       552180.
 778540.       778540.       552180.       552180.
 778540.
2FA99ibr11    0    0    0   41     COM2a
0.            7889400.      15778800.     23668200.
31557600.     39447000.     47336400.     55225800.
63115200.     71004600.     78894000.     86783400.
94672800.     102562200.    110451600.    118341000.
126230400.    134119800.    142009200.    149898600.
157788000.    165677400.    173566800.    181456200.
189345600.    197235000.    205124400.    213013800.
220903200.    228792600.    236682000.    244571400.
252460800.    260350200.    268239600.    276129000.
284018400.    291907800.    299797200.    307686600.
315576001.
0.2325        0.            0.2325        0.
0.2325        0.            0.2325        0.
0.2325        0.            0.2325        0.
0.2325        0.            0.2325        0.
0.2325        0.            0.2325        0.
0.2325        0.            0.2325        0.
0.2325        0.            0.2325        0.
0.2325        0.            0.2325        0.
0.2325        0.            0.2325        0.
0.2325        0.            0.2325        0.
0.2325 
 778540.       778540.       552180.       552180.
 778540.       778540.       552180.       552180.
 778540.       778540.       552180.       552180.
 778540.       778540.       552180.       552180.
 778540.       778540.       552180.       552180.
 778540.       778540.       552180.       552180.
 778540.       778540.       552180.       552180.
 778540.       778540.       552180.       552180.
 778540.       778540.       552180.       552180.
 778540.       778540.       552180.       552180.
 778540.
2FB13pro11    0    0    0   41     MASS 
0.            7889400.      15778800.     23668200.
31557600.     39447000.     47336400.     55225800.
63115200.     71004600.     78894000.     86783400.
94672800.     102562200.    110451600.    118341000.
126230400.    134119800.    142009200.    149898600.
157788000.    165677400.    173566800.    181456200.
189345600.    197235000.    205124400.    213013800.
220903200.    228792600.    236682000.    244571400.
252460800.    260350200.    268239600.    276129000.
284018400.    291907800.    299797200.    307686600.
315576001.
-0.375        0.            -0.375        0.
-0.375        0.            -0.375        0.
-0.375        0.            -0.375        0.
-0.375        0.            -0.375        0.
-0.375        0.            -0.375        0.
-0.375        0.            -0.375        0.
-0.375        0.            -0.375        0.
-0.375        0.            -0.375        0.
-0.375        0.            -0.375        0.
-0.375        0.            -0.375        0.
-0.375  

ELEME                                                                           
02A 1              10.2550E+010.2090E+01          0.3600E+010.6495E+000.2379E+02
2AA 1              20.2550E+010.0000E+00          0.3600E+010.6495E+000.2257E+02
2BA 1              30.2550E+010.0000E+00          0.3600E+010.6495E+000.2135E+02
2CA 1              40.2550E+010.0000E+00          0.3600E+010.6495E+000.2013E+02
2DA 1              50.2550E+010.0000E+00          0.3600E+010.6495E+000.1891E+02
2EA 1              60.2550E+010.0000E+00          0.3600E+010.6495E+000.1769E+02
2FA 1              70.2550E+010.0000E+00          0.3600E+010.6495E+000.1647E+02
2GA 1              80.2550E+010.0000E+00          0.3600E+010.6495E+000.1525E+02
2HA 1              90.2550E+010.0000E+00          0.3600E+010.6495E+000.1403E+02
2IA 1             100.2550E+010.0000E+00          0.3600E+010.6495E+000.1281E+02
03A 1             110.2550E+010.0000E+00          0.3600E+010.6495E+000.1159E+02
3AA 1             120.2550E+010.0000E+00          0.3600E+010.6495E+000.1037E+02
3BA 1             130.2550E+010.0000E+00          0.3600E+010.6495E+000.9150E+01
3CA 1             140.2550E+010.0000E+00          0.3600E+010.6495E+000.7930E+01
3DA 1             150.2550E+010.0000E+00          0.3600E+010.6495E+000.6710E+01
3EA 1             160.2550E+010.0000E+00          0.3600E+010.6495E+000.5490E+01
3FA 1             170.2550E+010.0000E+00          0.3600E+010.6495E+000.4270E+01
3GA 1             180.2550E+010.0000E+00          0.3600E+010.6495E+000.3050E+01
3HA 1             190.2550E+010.0000E+00          0.3600E+010.6495E+000.1830E+01
3IA 1             200.2550E+010.2090E+01          0.3600E+010.6495E+000.6100E+00
02A 2              10.2379E+010.1950E+01          0.5100E+010.6495E+000.2379E+02
2AA 2              20.2379E+010.0000E+00          0.5100E+010.6495E+000.2257E+02
2BA 2              30.2379E+010.0000E+00          0.5100E+010.6495E+000.2135E+02
2CA 2              40.2379E+010.0000E+00          0.5100E+010.6495E+000.2013E+02
2DA 2              50.2379E+010.0000E+00          0.5100E+010.6495E+000.1891E+02
2EA 2              60.2379E+010.0000E+00          0.5100E+010.6495E+000.1769E+02
2FA 2              70.2379E+010.0000E+00          0.5100E+010.6495E+000.1647E+02
2GA 2              80.2379E+010.0000E+00          0.5100E+010.6495E+000.1525E+02
2HA 2              90.2379E+010.0000E+00          0.5100E+010.6495E+000.1403E+02
2IA 2             100.2379E+010.0000E+00          0.5100E+010.6495E+000.1281E+02
03A 2             110.2379E+010.0000E+00          0.5100E+010.6495E+000.1159E+02
3AA 2             120.2379E+010.0000E+00          0.5100E+010.6495E+000.1037E+02
3BA 2             130.2379E+010.0000E+00          0.5100E+010.6495E+000.9150E+01
3CA 2             140.2379E+010.0000E+00          0.5100E+010.6495E+000.7930E+01
3DA 2             150.2379E+010.0000E+00          0.5100E+010.6495E+000.6710E+01
3EA 2             160.2379E+010.0000E+00          0.5100E+010.6495E+000.5490E+01
3FA 2             170.2379E+010.0000E+00          0.5100E+010.6495E+000.4270E+01
3GA 2             180.2379E+010.0000E+00          0.5100E+010.6495E+000.3050E+01
3HA 2             190.2379E+010.0000E+00          0.5100E+010.6495E+000.1830E+01
3IA 2             200.2379E+010.1950E+01          0.5100E+010.6495E+000.6100E+00
02A 3              10.2379E+010.1950E+01          0.6600E+010.6495E+000.2379E+02
2AA 3              20.2379E+010.0000E+00          0.6600E+010.6495E+000.2257E+02
2BA 3              30.2379E+010.0000E+00          0.6600E+010.6495E+000.2135E+02
2CA 3              40.2379E+010.0000E+00          0.6600E+010.6495E+000.2013E+02
2DA 3              50.2379E+010.0000E+00          0.6600E+010.6495E+000.1891E+02
2EA 3              60.2379E+010.0000E+00          0.6600E+010.6495E+000.1769E+02
2FA 3              70.2379E+010.0000E+00          0.6600E+010.6495E+000.1647E+02
2GA 3              80.2379E+010.0000E+00          0.6600E+010.6495E+000.1525E+02
2HA 3              90.2379E+010.0000E+00          0.6600E+010.6495E+000.1403E+02
2IA 3             100.2379E+010.0000E+00          0.6600E+010.6495E+000.1281E+02
03A 3             110.2379E+010.0000E+00          0.6600E+010.6495E+000.1159E+02
3AA 3             120.2379E+010.0000E+00          0.6600E+010.6495E+000.1037E+02
3BA 3             130.2379E+010.0000E+00          0.6600E+010.6495E+000.9150E+01
3CA 3             140.2379E+010.0000E+00          0.6600E+010.6495E+000.7930E+01
3DA 3             150.2379E+010.0000E+00          0.6600E+010.6495E+000.6710E+01
3EA 3             160.2379E+010.0000E+00          0.6600E+010.6495E+000.5490E+01
3FA 3             170.2379E+010.0000E+00          0.6600E+010.6495E+000.4270E+01
3GA 3             180.2379E+010.0000E+00          0.6600E+010.6495E+000.3050E+01
3HA 3             190.2379E+010.0000E+00          0.6600E+010.6495E+000.1830E+01
3IA 3             200.2379E+010.1950E+01          0.6600E+010.6495E+000.6100E+00
02A 4              10.2379E+010.1950E+01          0.8100E+010.6495E+000.2379E+02
2AA 4              20.2379E+010.0000E+00          0.8100E+010.6495E+000.2257E+02
2BA 4              30.2379E+010.0000E+00          0.8100E+010.6495E+000.2135E+02
2CA 4              40.2379E+010.0000E+00          0.8100E+010.6495E+000.2013E+02
2DA 4              50.2379E+010.0000E+00          0.8100E+010.6495E+000.1891E+02
2EA 4              60.2379E+010.0000E+00          0.8100E+010.6495E+000.1769E+02
2FA 4              70.2379E+010.0000E+00          0.8100E+010.6495E+000.1647E+02
2GA 4              80.2379E+010.0000E+00          0.8100E+010.6495E+000.1525E+02
2HA 4              90.2379E+010.0000E+00          0.8100E+010.6495E+000.1403E+02
2IA 4             100.2379E+010.0000E+00          0.8100E+010.6495E+000.1281E+02
03A 4             110.2379E+010.0000E+00          0.8100E+010.6495E+000.1159E+02
3AA 4             120.2379E+010.0000E+00          0.8100E+010.6495E+000.1037E+02
3BA 4             130.2379E+010.0000E+00          0.8100E+010.6495E+000.9150E+01
3CA 4             140.2379E+010.0000E+00          0.8100E+010.6495E+000.7930E+01
3DA 4             150.2379E+010.0000E+00          0.8100E+010.6495E+000.6710E+01
3EA 4             160.2379E+010.0000E+00          0.8100E+010.6495E+000.5490E+01
3FA 4             170.2379E+010.0000E+00          0.8100E+010.6495E+000.4270E+01
3GA 4             180.2379E+010.0000E+00          0.8100E+010.6495E+000.3050E+01
3HA 4             190.2379E+010.0000E+00          0.8100E+010.6495E+000.1830E+01
3IA 4             200.2379E+010.1950E+01          0.8100E+010.6495E+000.6100E+00
02A 5              10.2379E+010.1950E+01          0.9600E+010.6495E+000.2379E+02
2AA 5              20.2379E+010.0000E+00          0.9600E+010.6495E+000.2257E+02
2BA 5              30.2379E+010.0000E+00          0.9600E+010.6495E+000.2135E+02
2CA 5              40.2379E+010.0000E+00          0.9600E+010.6495E+000.2013E+02
2DA 5              50.2379E+010.0000E+00          0.9600E+010.6495E+000.1891E+02
2EA 5              60.2379E+010.0000E+00          0.9600E+010.6495E+000.1769E+02
2FA 5              70.2379E+010.0000E+00          0.9600E+010.6495E+000.1647E+02
2GA 5              80.2379E+010.0000E+00          0.9600E+010.6495E+000.1525E+02
2HA 5              90.2379E+010.0000E+00          0.9600E+010.6495E+000.1403E+02
2IA 5             100.2379E+010.0000E+00          0.9600E+010.6495E+000.1281E+02
03A 5             110.2379E+010.0000E+00          0.9600E+010.6495E+000.1159E+02
3AA 5             120.2379E+010.0000E+00          0.9600E+010.6495E+000.1037E+02
3BA 5             130.2379E+010.0000E+00          0.9600E+010.6495E+000.9150E+01
3CA 5             140.2379E+010.0000E+00          0.9600E+010.6495E+000.7930E+01
3DA 5             150.2379E+010.0000E+00          0.9600E+010.6495E+000.6710E+01
3EA 5             160.2379E+010.0000E+00          0.9600E+010.6495E+000.5490E+01
3FA 5             170.2379E+010.0000E+00          0.9600E+010.6495E+000.4270E+01
3GA 5             180.2379E+010.0000E+00          0.9600E+010.6495E+000.3050E+01
3HA 5             190.2379E+010.0000E+00          0.9600E+010.6495E+000.1830E+01
3IA 5             200.2379E+010.1950E+01          0.9600E+010.6495E+000.6100E+00
02A 6              10.2379E+010.1950E+01          0.1110E+020.6495E+000.2379E+02
2AA 6              20.2379E+010.0000E+00          0.1110E+020.6495E+000.2257E+02
2BA 6              30.2379E+010.0000E+00          0.1110E+020.6495E+000.2135E+02
2CA 6              40.2379E+010.0000E+00          0.1110E+020.6495E+000.2013E+02
2DA 6              50.2379E+010.0000E+00          0.1110E+020.6495E+000.1891E+02
2EA 6              60.2379E+010.0000E+00          0.1110E+020.6495E+000.1769E+02
2FA 6              70.2379E+010.0000E+00          0.1110E+020.6495E+000.1647E+02
2GA 6              80.2379E+010.0000E+00          0.1110E+020.6495E+000.1525E+02
2HA 6              90.2379E+010.0000E+00          0.1110E+020.6495E+000.1403E+02
2IA 6             100.2379E+010.0000E+00          0.1110E+020.6495E+000.1281E+02
03A 6             110.2379E+010.0000E+00          0.1110E+020.6495E+000.1159E+02
3AA 6             120.2379E+010.0000E+00          0.1110E+020.6495E+000.1037E+02
3BA 6             130.2379E+010.0000E+00          0.1110E+020.6495E+000.9150E+01
3CA 6             140.2379E+010.0000E+00          0.1110E+020.6495E+000.7930E+01
3DA 6             150.2379E+010.0000E+00          0.1110E+020.6495E+000.6710E+01
3EA 6             160.2379E+010.0000E+00          0.1110E+020.6495E+000.5490E+01
3FA 6             170.2379E+010.0000E+00          0.1110E+020.6495E+000.4270E+01
3GA 6             180.2379E+010.0000E+00          0.1110E+020.6495E+000.3050E+01
3HA 6             190.2379E+010.0000E+00          0.1110E+020.6495E+000.1830E+01
3IA 6             200.2379E+010.1950E+01          0.1110E+020.6495E+000.6100E+00
02A 7              10.2379E+010.1950E+01          0.1260E+020.6495E+000.2379E+02
2AA 7              20.2379E+010.0000E+00          0.1260E+020.6495E+000.2257E+02
2BA 7              30.2379E+010.0000E+00          0.1260E+020.6495E+000.2135E+02
2CA 7              40.2379E+010.0000E+00          0.1260E+020.6495E+000.2013E+02
2DA 7              50.2379E+010.0000E+00          0.1260E+020.6495E+000.1891E+02
2EA 7              60.2379E+010.0000E+00          0.1260E+020.6495E+000.1769E+02
2FA 7              70.2379E+010.0000E+00          0.1260E+020.6495E+000.1647E+02
2GA 7              80.2379E+010.0000E+00          0.1260E+020.6495E+000.1525E+02
2HA 7              90.2379E+010.0000E+00          0.1260E+020.6495E+000.1403E+02
2IA 7             100.2379E+010.0000E+00          0.1260E+020.6495E+000.1281E+02
03A 7             110.2379E+010.0000E+00          0.1260E+020.6495E+000.1159E+02
3AA 7             120.2379E+010.0000E+00          0.1260E+020.6495E+000.1037E+02
3BA 7             130.2379E+010.0000E+00          0.1260E+020.6495E+000.9150E+01
3CA 7             140.2379E+010.0000E+00          0.1260E+020.6495E+000.7930E+01
3DA 7             150.2379E+010.0000E+00          0.1260E+020.6495E+000.6710E+01
3EA 7             160.2379E+010.0000E+00          0.1260E+020.6495E+000.5490E+01
3FA 7             170.2379E+010.0000E+00          0.1260E+020.6495E+000.4270E+01
3GA 7             180.2379E+010.0000E+00          0.1260E+020.6495E+000.3050E+01
3HA 7             190.2379E+010.0000E+00          0.1260E+020.6495E+000.1830E+01
3IA 7             200.2379E+010.1950E+01          0.1260E+020.6495E+000.6100E+00
02A 8              10.2379E+010.1950E+01          0.1410E+020.6495E+000.2379E+02
2AA 8              20.2379E+010.0000E+00          0.1410E+020.6495E+000.2257E+02
2BA 8              30.2379E+010.0000E+00          0.1410E+020.6495E+000.2135E+02
2CA 8              40.2379E+010.0000E+00          0.1410E+020.6495E+000.2013E+02
2DA 8              50.2379E+010.0000E+00          0.1410E+020.6495E+000.1891E+02
2EA 8              60.2379E+010.0000E+00          0.1410E+020.6495E+000.1769E+02
2FA 8              70.2379E+010.0000E+00          0.1410E+020.6495E+000.1647E+02
2GA 8              80.2379E+010.0000E+00          0.1410E+020.6495E+000.1525E+02
2HA 8              90.2379E+010.0000E+00          0.1410E+020.6495E+000.1403E+02
2IA 8             100.2379E+010.0000E+00          0.1410E+020.6495E+000.1281E+02
03A 8             110.2379E+010.0000E+00          0.1410E+020.6495E+000.1159E+02
3AA 8             120.2379E+010.0000E+00          0.1410E+020.6495E+000.1037E+02
3BA 8             130.2379E+010.0000E+00          0.1410E+020.6495E+000.9150E+01
3CA 8             140.2379E+010.0000E+00          0.1410E+020.6495E+000.7930E+01
3DA 8             150.2379E+010.0000E+00          0.1410E+020.6495E+000.6710E+01
3EA 8             160.2379E+010.0000E+00          0.1410E+020.6495E+000.5490E+01
3FA 8             170.2379E+010.0000E+00          0.1410E+020.6495E+000.4270E+01
3GA 8             180.2379E+010.0000E+00          0.1410E+020.6495E+000.3050E+01
3HA 8             190.2379E+010.0000E+00          0.1410E+020.6495E+000.1830E+01
3IA 8             200.2379E+010.1950E+01          0.1410E+020.6495E+000.6100E+00
02A 9              10.2379E+010.1950E+01          0.1560E+020.6495E+000.2379E+02
2AA 9              20.2379E+010.0000E+00          0.1560E+020.6495E+000.2257E+02
2BA 9              30.2379E+010.0000E+00          0.1560E+020.6495E+000.2135E+02
2CA 9              40.2379E+010.0000E+00          0.1560E+020.6495E+000.2013E+02
2DA 9              50.2379E+010.0000E+00          0.1560E+020.6495E+000.1891E+02
2EA 9              60.2379E+010.0000E+00          0.1560E+020.6495E+000.1769E+02
2FA 9              70.2379E+010.0000E+00          0.1560E+020.6495E+000.1647E+02
2GA 9              80.2379E+010.0000E+00          0.1560E+020.6495E+000.1525E+02
2HA 9              90.2379E+010.0000E+00          0.1560E+020.6495E+000.1403E+02
2IA 9             100.2379E+010.0000E+00          0.1560E+020.6495E+000.1281E+02
03A 9             110.2379E+010.0000E+00          0.1560E+020.6495E+000.1159E+02
3AA 9             120.2379E+010.0000E+00          0.1560E+020.6495E+000.1037E+02
3BA 9             130.2379E+010.0000E+00          0.1560E+020.6495E+000.9150E+01
3CA 9             140.2379E+010.0000E+00          0.1560E+020.6495E+000.7930E+01
3DA 9             150.2379E+010.0000E+00          0.1560E+020.6495E+000.6710E+01
3EA 9             160.2379E+010.0000E+00          0.1560E+020.6495E+000.5490E+01
3FA 9             170.2379E+010.0000E+00          0.1560E+020.6495E+000.4270E+01
3GA 9             180.2379E+010.0000E+00          0.1560E+020.6495E+000.3050E+01
3HA 9             190.2379E+010.0000E+00          0.1560E+020.6495E+000.1830E+01
3IA 9             200.2379E+010.1950E+01          0.1560E+020.6495E+000.6100E+00
02A10              10.2379E+010.1950E+01          0.1710E+020.6495E+000.2379E+02
2AA10              20.2379E+010.0000E+00          0.1710E+020.6495E+000.2257E+02
2BA10              30.2379E+010.0000E+00          0.1710E+020.6495E+000.2135E+02
2CA10              40.2379E+010.0000E+00          0.1710E+020.6495E+000.2013E+02
2DA10              50.2379E+010.0000E+00          0.1710E+020.6495E+000.1891E+02
2EA10              60.2379E+010.0000E+00          0.1710E+020.6495E+000.1769E+02
2FA10              70.2379E+010.0000E+00          0.1710E+020.6495E+000.1647E+02
2GA10              80.2379E+010.0000E+00          0.1710E+020.6495E+000.1525E+02
2HA10              90.2379E+010.0000E+00          0.1710E+020.6495E+000.1403E+02
2IA10             100.2379E+010.0000E+00          0.1710E+020.6495E+000.1281E+02
03A10             110.2379E+010.0000E+00          0.1710E+020.6495E+000.1159E+02
3AA10             120.2379E+010.0000E+00          0.1710E+020.6495E+000.1037E+02
3BA10             130.2379E+010.0000E+00          0.1710E+020.6495E+000.9150E+01
3CA10             140.2379E+010.0000E+00          0.1710E+020.6495E+000.7930E+01
3DA10             150.2379E+010.0000E+00          0.1710E+020.6495E+000.6710E+01
3EA10             160.2379E+010.0000E+00          0.1710E+020.6495E+000.5490E+01
3FA10             170.2379E+010.0000E+00          0.1710E+020.6495E+000.4270E+01
3GA10             180.2379E+010.0000E+00          0.1710E+020.6495E+000.3050E+01
3HA10             190.2379E+010.0000E+00          0.1710E+020.6495E+000.1830E+01
3IA10             200.2379E+010.1950E+01          0.1710E+020.6495E+000.6100E+00
02A11              10.3087E+010.2530E+01          0.1860E+020.6495E+000.2379E+02
2AA11              20.3087E+010.0000E+00          0.1860E+020.6495E+000.2257E+02
2BA11              30.3087E+010.0000E+00          0.1860E+020.6495E+000.2135E+02
2CA11              40.3087E+010.0000E+00          0.1860E+020.6495E+000.2013E+02
2DA11              50.3087E+010.0000E+00          0.1860E+020.6495E+000.1891E+02
2EA11              60.3087E+010.0000E+00          0.1860E+020.6495E+000.1769E+02
2FA11              70.3087E+010.0000E+00          0.1860E+020.6495E+000.1647E+02
2GA11              80.3087E+010.0000E+00          0.1860E+020.6495E+000.1525E+02
2HA11              90.3087E+010.0000E+00          0.1860E+020.6495E+000.1403E+02
2IA11             100.3087E+010.0000E+00          0.1860E+020.6495E+000.1281E+02
03A11             110.3087E+010.0000E+00          0.1860E+020.6495E+000.1159E+02
3AA11             120.3087E+010.0000E+00          0.1860E+020.6495E+000.1037E+02
3BA11             130.3087E+010.0000E+00          0.1860E+020.6495E+000.9150E+01
3CA11             140.3087E+010.0000E+00          0.1860E+020.6495E+000.7930E+01
3DA11             150.3087E+010.0000E+00          0.1860E+020.6495E+000.6710E+01
3EA11             160.3087E+010.0000E+00          0.1860E+020.6495E+000.5490E+01
3FA11             170.3087E+010.0000E+00          0.1860E+020.6495E+000.4270E+01
3GA11             180.3087E+010.0000E+00          0.1860E+020.6495E+000.3050E+01
3HA11             190.3087E+010.0000E+00          0.1860E+020.6495E+000.1830E+01
3IA11             200.3087E+010.2530E+01          0.1860E+020.6495E+000.6100E+00
02A12              10.2403E+010.1970E+01          0.2850E+010.1949E+010.2379E+02
2AA12              20.2403E+010.0000E+00          0.2850E+010.1949E+010.2257E+02
2BA12              30.2403E+010.0000E+00          0.2850E+010.1949E+010.2135E+02
2CA12              40.2403E+010.0000E+00          0.2850E+010.1949E+010.2013E+02
2DA12              50.2403E+010.0000E+00          0.2850E+010.1949E+010.1891E+02
2EA12              60.2403E+010.0000E+00          0.2850E+010.1949E+010.1769E+02
2FA12              70.2403E+010.0000E+00          0.2850E+010.1949E+010.1647E+02
2GA12              80.2403E+010.0000E+00          0.2850E+010.1949E+010.1525E+02
2HA12              90.2403E+010.0000E+00          0.2850E+010.1949E+010.1403E+02
2IA12             100.2403E+010.0000E+00          0.2850E+010.1949E+010.1281E+02
03A12             110.2403E+010.0000E+00          0.2850E+010.1949E+010.1159E+02
3AA12             120.2403E+010.0000E+00          0.2850E+010.1949E+010.1037E+02
3BA12             130.2403E+010.0000E+00          0.2850E+010.1949E+010.9150E+01
3CA12             140.2403E+010.0000E+00          0.2850E+010.1949E+010.7930E+01
3DA12             150.2403E+010.0000E+00          0.2850E+010.1949E+010.6710E+01
3EA12             160.2403E+010.0000E+00          0.2850E+010.1949E+010.5490E+01
3FA12             170.2403E+010.0000E+00          0.2850E+010.1949E+010.4270E+01
3GA12             180.2403E+010.0000E+00          0.2850E+010.1949E+010.3050E+01