*temperature_1d* comparison case for TOUGH2--FALCON simulations
Created by Rob Podgorney, INL, 12/17/09
See page 40-42 in FALCON notebook for details. 
Single phase flow and heat transport simulation
&&&&&&&&&&&&&&&&&&&&&&&&&&&&&&&&&&&&&&&&&&&&&&&&&&&&&&&&&&&&&&&&&&&&&&&&&&&&&&&&
********************************************************************************

ROCKS----1----*----2----*----3----*----4----*----5----*----6----*----7----*----8
BAS01    0  2500.e00     0.2    1.00e-12  1.00e-12  1.00e-12      2.50     920.0
   

START----1----*----2----*----3----*----4----*----5----*----6----*----7----*----8
REACT----1MOPR(20)-2----*----3----*----4----*----5----*----6----*----7----*----8
20010002
----*----1 MOP: 123456789*123456789*1234 ---*----5----*----6----*----7----*----8
PARAM----1----*----2----*----3----*----4----*----5----*----6----*----7----*----8
8  29999    999910003011000000 3    5                                
             1.00e6    10000.    10000.                        
    1.E-5     1.E00                                        
         100000.0e0         20.0              

INCON
A11 1
110000.0             30.0
B11 2
100000.              20.0

ELEME----1----*----2----*----3----*----4----*----5----*----6----*----7----*----8
A11 1              10.1000E+490.1000E+500.1000E+01-.5000E-010.0000E+000.0000E+00
A11 2              10.1000E+000.2000E+000.1000E+010.5000E-010.0000E+000.0000E+00
A11 3              10.1000E+000.2000E+000.1000E+010.1500E+000.0000E+000.0000E+00
A11 4              10.1000E+000.2000E+000.1000E+010.2500E+000.0000E+000.0000E+00
A11 5              10.1000E+000.2000E+000.1000E+010.3500E+000.0000E+000.0000E+00
A11 6              10.1000E+000.2000E+000.1000E+010.4500E+000.0000E+000.0000E+00
A11 7              10.1000E+000.2000E+000.1000E+010.5500E+000.0000E+000.0000E+00
A11 8              10.1000E+000.2000E+000.1000E+010.6500E+000.0000E+000.0000E+00
A11 9              10.1000E+000.2000E+000.1000E+010.7500E+000.0000E+000.0000E+00
A1110              10.1000E+000.2000E+000.1000E+010.8500E+000.0000E+000.0000E+00
A1111              10.1000E+000.2000E+000.1000E+010.9500E+000.0000E+000.0000E+00
A1112              10.1000E+000.2000E+000.1000E+010.1050E+010.0000E+000.0000E+00
A1113              10.1000E+000.2000E+000.1000E+010.1150E+010.0000E+000.0000E+00
A1114              10.1000E+000.2000E+000.1000E+010.1250E+010.0000E+000.0000E+00
A1115              10.1000E+000.2000E+000.1000E+010.1350E+010.0000E+000.0000E+00
A1116              10.1000E+000.2000E+000.1000E+010.1450E+010.0000E+000.0000E+00
A1117              10.1000E+000.2000E+000.1000E+010.1550E+010.0000E+000.0000E+00
A1118              10.1000E+000.2000E+000.1000E+010.1650E+010.0000E+000.0000E+00
A1119              10.1000E+000.2000E+000.1000E+010.1750E+010.0000E+000.0000E+00
A1120              10.1000E+000.2000E+000.1000E+010.1850E+010.0000E+000.0000E+00
A1121              10.1000E+000.2000E+000.1000E+010.1950E+010.0000E+000.0000E+00
A1122              10.1000E+000.2000E+000.1000E+010.2050E+010.0000E+000.0000E+00
A1123              10.1000E+000.2000E+000.1000E+010.2150E+010.0000E+000.0000E+00
A1124              10.1000E+000.2000E+000.1000E+010.2250E+010.0000E+000.0000E+00
A1125              10.1000E+000.2000E+000.1000E+010.2350E+010.0000E+000.0000E+00
A1126              10.1000E+000.2000E+000.1000E+010.2450E+010.0000E+000.0000E+00
A1127              10.1000E+000.2000E+000.1000E+010.2550E+010.0000E+000.0000E+00
A1128              10.1000E+000.2000E+000.1000E+010.2650E+010.0000E+000.0000E+00
A1129              10.1000E+000.2000E+000.1000E+010.2750E+010.0000E+000.0000E+00
A1130              10.1000E+000.2000E+000.1000E+010.2850E+010.0000E+000.0000E+00
A1131              10.1000E+000.2000E+000.1000E+010.2950E+010.0000E+000.0000E+00
A1132              10.1000E+000.2000E+000.1000E+010.3050E+010.0000E+000.0000E+00
A1133              10.1000E+000.2000E+000.1000E+010.3150E+010.0000E+000.0000E+00
A1134              10.1000E+000.2000E+000.1000E+010.3250E+010.0000E+000.0000E+00
A1135              10.1000E+000.2000E+000.1000E+010.3350E+010.0000E+000.0000E+00
A1136              10.1000E+000.2000E+000.1000E+010.3450E+010.0000E+000.0000E+00
A1137              10.1000E+000.2000E+000.1000E+010.3550E+010.0000E+000.0000E+00
A1138              10.1000E+000.2000E+000.1000E+010.3650E+010.0000E+000.0000E+00
A1139              10.1000E+000.2000E+000.1000E+010.3750E+010.0000E+000.0000E+00
A1140              10.1000E+000.2000E+000.1000E+010.3850E+010.0000E+000.0000E+00
A1141              10.1000E+000.2000E+000.1000E+010.3950E+010.0000E+000.0000E+00
A1142              10.1000E+000.2000E+000.1000E+010.4050E+010.0000E+000.0000E+00
A1143              10.1000E+000.2000E+000.1000E+010.4150E+010.0000E+000.0000E+00
A1144              10.1000E+000.2000E+000.1000E+010.4250E+010.0000E+000.0000E+00
A1145              10.1000E+000.2000E+000.1000E+010.4350E+010.0000E+000.0000E+00
A1146              10.1000E+000.2000E+000.1000E+010.4450E+010.0000E+000.0000E+00
A1147              10.1000E+000.2000E+000.1000E+010.4550E+010.0000E+000.0000E+00
A1148              10.1000E+000.2000E+000.1000E+010.4650E+010.0000E+000.0000E+00
A1149              10.1000E+000.2000E+000.1000E+010.4750E+010.0000E+000.0000E+00
A1150              10.1000E+000.2000E+000.1000E+010.4850E+010.0000E+000.0000E+00
A1151              10.1000E+000.2000E+000.1000E+010.4950E+010.0000E+000.0000E+00
A1152              10.1000E+000.2000E+000.1000E+010.5050E+010.0000E+000.0000E+00
A1153              10.1000E+000.2000E+000.1000E+010.5150E+010.0000E+000.0000E+00
A1154              10.1000E+000.2000E+000.1000E+010.5250E+010.0000E+000.0000E+00
A1155              10.1000E+000.2000E+000.1000E+010.5350E+010.0000E+000.0000E+00
A1156              10.1000E+000.2000E+000.1000E+010.5450E+010.0000E+000.0000E+00
A1157              10.1000E+000.2000E+000.1000E+010.5550E+010.0000E+000.0000E+00
A1158              10.1000E+000.2000E+000.1000E+010.5650E+010.0000E+000.0000E+00
A1159              10.1000E+000.2000E+000.1000E+010.5750E+010.0000E+000.0000E+00
A1160              10.1000E+000.2000E+000.1000E+010.5850E+010.0000E+000.0000E+00
A1161              10.1000E+000.2000E+000.1000E+010.5950E+010.0000E+000.0000E+00
A1162              10.1000E+000.2000E+000.1000E+010.6050E+010.0000E+000.0000E+00
A1163              10.1000E+000.2000E+000.1000E+010.6150E+010.0000E+000.0000E+00
A1164              10.1000E+000.2000E+000.1000E+010.6250E+010.0000E+000.0000E+00
A1165              10.1000E+000.2000E+000.1000E+010.6350E+010.0000E+000.0000E+00
A1166              10.1000E+000.2000E+000.1000E+010.6450E+010.0000E+000.0000E+00
A1167              10.1000E+000.2000E+000.1000E+010.6550E+010.0000E+000.0000E+00
A1168              10.1000E+000.2000E+000.1000E+010.6650E+010.0000E+000.0000E+00
A1169              10.1000E+000.2000E+000.1000E+010.6750E+010.0000E+000.0000E+00
A1170              10.1000E+000.2000E+000.1000E+010.6850E+010.0000E+000.0000E+00
A1171              10.1000E+000.2000E+000.1000E+010.6950E+010.0000E+000.0000E+00
A1172              10.1000E+000.2000E+000.1000E+010.7050E+010.0000E+000.0000E+00
A1173              10.1000E+000.2000E+000.1000E+010.7150E+010.0000E+000.0000E+00
A1174              10.1000E+000.2000E+000.1000E+010.7250E+010.0000E+000.0000E+00
A1175              10.1000E+000.2000E+000.1000E+010.7350E+010.0000E+000.0000E+00
A1176              10.1000E+000.2000E+000.1000E+010.7450E+010.0000E+000.0000E+00
A1177              10.1000E+000.2000E+000.1000E+010.7550E+010.0000E+000.0000E+00
A1178              10.1000E+000.2000E+000.1000E+010.7650E+010.0000E+000.0000E+00
A1179              10.1000E+000.2000E+000.1000E+010.7750E+010.0000E+000.0000E+00
A1180              10.1000E+000.2000E+000.1000E+010.7850E+010.0000E+000.0000E+00
A1181              10.1000E+000.2000E+000.1000E+010.7950E+010.0000E+000.0000E+00
A1182              10.1000E+000.2000E+000.1000E+010.8050E+010.0000E+000.0000E+00
A1183              10.1000E+000.2000E+000.1000E+010.8150E+010.0000E+000.0000E+00
A1184              10.1000E+000.2000E+000.1000E+010.8250E+010.0000E+000.0000E+00
A1185              10.1000E+000.2000E+000.1000E+010.8350E+010.0000E+000.0000E+00
A1186              10.1000E+000.2000E+000.1000E+010.8450E+010.0000E+000.0000E+00
A1187              10.1000E+000.2000E+000.1000E+010.8550E+010.0000E+000.0000E+00
A1188              10.1000E+000.2000E+000.1000E+010.8650E+010.0000E+000.0000E+00
A1189              10.1000E+000.2000E+000.1000E+010.8750E+010.0000E+000.0000E+00
A1190              10.1000E+000.2000E+000.1000E+010.8850E+010.0000E+000.0000E+00
A1191              10.1000E+000.2000E+000.1000E+010.8950E+010.0000E+000.0000E+00
A1192              10.1000E+000.2000E+000.1000E+010.9050E+010.0000E+000.0000E+00
A1193              10.1000E+000.2000E+000.1000E+010.9150E+010.0000E+000.0000E+00
A1194              10.1000E+000.2000E+000.1000E+010.9250E+010.0000E+000.0000E+00
A1195              10.1000E+000.2000E+000.1000E+010.9350E+010.0000E+000.0000E+00
A1196              10.1000E+000.2000E+000.1000E+010.9450E+010.0000E+000.0000E+00
A1197              10.1000E+000.2000E+000.1000E+010.9550E+010.0000E+000.0000E+00
A1198              10.1000E+000.2000E+000.1000E+010.9650E+010.0000E+000.0000E+00
A1199              10.1000E+000.2000E+000.1000E+010.9750E+010.0000E+000.0000E+00
B11 1              10.1000E+000.2000E+000.1000E+010.9850E+010.0000E+000.0000E+00
B11 2              10.1000E+4900.2000E+000.1000E+010.9950E+010.0000E+000.0000E+00

CONNE
A11 1A11 2                   10.5000E-090.5000E-010.1000E+01
A11 2A11 3                   10.5000E-010.5000E-010.1000E+01
A11 3A11 4                   10.5000E-010.5000E-010.1000E+01
A11 4A11 5                   10.5000E-010.5000E-010.1000E+01
A11 5A11 6                   10.5000E-010.5000E-010.1000E+01
A11 6A11 7                   10.5000E-010.5000E-010.1000E+01
A11 7A11 8                   10.5000E-010.5000E-010.1000E+01
A11 8A11 9                   10.5000E-010.5000E-010.1000E+01
A11 9A1110                   10.5000E-010.5000E-010.1000E+01
A1110A1111                   10.5000E-010.5000E-010.1000E+01
A1111A1112                   10.5000E-010.5000E-010.1000E+01
A1112A1113                   10.5000E-010.5000E-010.1000E+01
A1113A1114                   10.5000E-010.5000E-010.1000E+01
A1114A1115                   10.5000E-010.5000E-010.1000E+01
A1115A1116                   10.5000E-010.5000E-010.1000E+01
A1116A1117                   10.5000E-010.5000E-010.1000E+01
A1117A1118                   10.5000E-010.5000E-010.1000E+01
A1118A1119                   10.5000E-010.5000E-010.1000E+01
A1119A1120                   10.5000E-010.5000E-010.1000E+01
A1120A1121                   10.5000E-010.5000E-010.1000E+01
A1121A1122                   10.5000E-010.5000E-010.1000E+01
A1122A1123                   10.5000E-010.5000E-010.1000E+01
A1123A1124                   10.5000E-010.5000E-010.1000E+01
A1124A1125                   10.5000E-010.5000E-010.1000E+01
A1125A1126                   10.5000E-010.5000E-010.1000E+01
A1126A1127                   10.5000E-010.5000E-010.1000E+01
A1127A1128                   10.5000E-010.5000E-010.1000E+01
A1128A1129                   10.5000E-010.5000E-010.1000E+01
A1129A1130                   10.5000E-010.5000E-010.1000E+01
A1130A1131                   10.5000E-010.5000E-010.1000E+01
A1131A1132                   10.5000E-010.5000E-010.1000E+01
A1132A1133                   10.5000E-010.5000E-010.1000E+01
A1133A1134                   10.5000E-010.5000E-010.1000E+01
A1134A1135                   10.5000E-010.5000E-010.1000E+01
A1135A1136                   10.5000E-010.5000E-010.1000E+01
A1136A1137                   10.5000E-010.5000E-010.1000E+01
A1137A1138                   10.5000E-010.5000E-010.1000E+01
A1138A1139                   10.5000E-010.5000E-010.1000E+01
A1139A1140                   10.5000E-010.5000E-010.1000E+01
A1140A1141                   10.5000E-010.5000E-010.1000E+01
A1141A1142                   10.5000E-010.5000E-010.1000E+01
A1142A1143                   10.5000E-010.5000E-010.1000E+01
A1143A1144                   10.5000E-010.5000E-010.1000E+01
A1144A1145                   10.5000E-010.5000E-010.1000E+01
A1145A1146                   10.5000E-010.5000E-010.1000E+01
A1146A1147                   10.5000E-010.5000E-010.1000E+01
A1147A1148                   10.5000E-010.5000E-010.1000E+01
A1148A1149                   10.5000E-010.5000E-010.1000E+01
A1149A1150                   10.5000E-010.5000E-010.1000E+01
A1150A1151                   10.5000E-010.5000E-010.1000E+01
A1151A1152                   10.5000E-010.5000E-010.1000E+01
A1152A1153                   10.5000E-010.5000E-010.1000E+01
A1153A1154                   10.5000E-010.5000E-010.1000E+01
A1154A1155                   10.5000E-010.5000E-010.1000E+01
A1155A1156                   10.5000E-010.5000E-010.1000E+01
A1156A1157                   10.5000E-010.5000E-010.1000E+01
A1157A1158                   10.5000E-010.5000E-010.1000E+01
A1158A1159                   10.5000E-010.5000E-010.1000E+01
A1159A1160                   10.5000E-010.5000E-010.1000E+01
A1160A1161                   10.5000E-010.5000E-010.1000E+01
A1161A1162                   10.5000E-010.5000E-010.1000E+01
A1162A1163                   10.5000E-010.5000E-010.1000E+01
A1163A1164                   10.5000E-010.5000E-010.1000E+01
A1164A1165                   10.5000E-010.5000E-010.1000E+01
A1165A1166                   10.5000E-010.5000E-010.1000E+01
A1166A1167                   10.5000E-010.5000E-010.1000E+01
A1167A1168                   10.5000E-010.5000E-010.1000E+01
A1168A1169                   10.5000E-010.5000E-010.1000E+01
A1169A1170                   10.5000E-010.5000E-010.1000E+01
A1170A1171                   10.5000E-010.5000E-010.1000E+01
A1171A1172                   10.5000E-010.5000E-010.1000E+01
A1172A1173                   10.5000E-010.5000E-010.1000E+01
A1173A1174                   10.5000E-010.5000E-010.1000E+01
A1174A1175                   10.5000E-010.5000E-010.1000E+01
A1175A1176                   10.5000E-010.5000E-010.1000E+01
A1176A1177                   10.5000E-010.5000E-010.1000E+01
A1177A1178                   10.5000E-010.5000E-010.1000E+01
A1178A1179                   10.5000E-010.5000E-010.1000E+01
A1179A1180                   10.5000E-010.5000E-010.1000E+01
A1180A1181                   10.5000E-010.5000E-010.1000E+01
A1181A1182                   10.5000E-010.5000E-010.1000E+01
A1182A1183                   10.5000E-010.5000E-010.1000E+01
A1183A1184                   10.5000E-010.5000E-010.1000E+01
A1184A1185                   10.5000E-010.5000E-010.1000E+01
A1185A1186                   10.5000E-010.5000E-010.1000E+01
A1186A1187                   10.5000E-010.5000E-010.1000E+01
A1187A1188                   10.5000E-010.5000E-010.1000E+01
A1188A1189                   10.5000E-010.5000E-010.1000E+01
A1189A1190                   10.5000E-010.5000E-010.1000E+01
A1190A1191                   10.5000E-010.5000E-010.1000E+01
A1191A1192                   10.5000E-010.5000E-010.1000E+01
A1192A1193                   10.5000E-010.5000E-010.1000E+01
A1193A1194                   10.5000E-010.5000E-010.1000E+01
A1194A1195                   10.5000E-010.5000E-010.1000E+01
A1195A1196                   10.5000E-010.5000E-010.1000E+01
A1196A1197                   10.5000E-010.5000E-010.1000E+01
A1197A1198                   10.5000E-010.5000E-010.1000E+01
A1198A1199                   10.5000E-010.5000E-010.1000E+01
A1199B11 1                   10.5000E-010.5000E-010.1000E+01
B11 1B11 2                   10.5000E-010.5000E-010.1000E+01
     


ENDCY----1----*----2----*----3----*----4----*----5----*----6----*----7----*----8

