*mesh1* ... input file for mesh generation
&&&&&&&&&&&&&&&&&&&&&&&&&&&&&&&&&&&&&&&&&&&&&&&&&&&&&&&&&&&&&&&&&&&&&&&&&&&&&&&&
********************************************************************************
MESHMAKER1----*----2----*----3----*----4----*----5----*----6----*----7----*----8
XYZ
       
NX       1  1.0E+00
NY       1  1.00E+00
NZ      40  0.25


ROCKS----1----*----2----*----3----*----4----*----5----*----6----*----7----*----8
SAND     2  2600.e00       .35    1.e-12   1.0e-12    1.e-12      2.51      920.

    7           .457       .15        1.
    7           .457       .05  5.105e-5      1.e7        1.
REFCO           1.e5       20.                                    -75.

START----1----*----2----*----3----*----4----*----5----*----6----*----7----*----8
----*----1-MOP: 123456789*123456789*1234----*----5----*----6----*----7----*----8
PARAM----1----*----2----*----3----*----4----*----5----*----6----*----7----*----8
   2   2       21010 0000020000400 03  0
                           -1.                          9.81
     1.e-9      1.e9
     1.e-5
                 .25


ENDFI----1----*----2----*----3----*----4----*----5----*----6----*----7----*----8

